****
 OpenBabel01022215003D

 37 37  0  0  1  0  0  0  0  0999 V2000
   32.4980   33.1030  -20.2050 H   0  0  0  0  0  0  0  0  0  0  0  0
   33.5600   33.6340  -21.3260 H   0  0  0  0  0  0  0  0  0  0  0  0
   30.8760   34.6150  -20.9090 H   0  0  0  0  0  0  0  0  0  0  0  0
   32.7130   35.7400  -22.8010 H   0  0  0  0  0  0  0  0  0  0  0  0
   32.0810   36.9290  -20.2650 H   0  0  0  0  0  0  0  0  0  0  0  0
   34.5410   35.7340  -21.1710 H   0  0  0  0  0  0  0  0  0  0  0  0
   34.4700   31.3110  -15.1220 H   0  0  0  0  0  0  0  0  0  0  0  0
   32.9720   31.4850  -15.7490 H   0  0  0  0  0  0  0  0  0  0  0  0
   34.1250   30.7000  -16.5960 H   0  0  0  0  0  0  0  0  0  0  0  0
   35.6270   36.4890  -19.2060 H   0  0  0  0  0  0  0  0  0  0  0  0
   35.0930   37.7890  -20.0390 H   0  0  0  0  0  0  0  0  0  0  0  0
   35.3550   32.7400  -16.8140 H   0  0  0  0  0  0  0  0  0  0  0  0
   34.2020   33.5250  -15.9660 H   0  0  0  0  0  0  0  0  0  0  0  0
   33.6800   32.3120  -18.5470 H   0  0  0  0  0  0  0  0  0  0  0  0
   32.6610   33.2930  -17.7290 H   0  0  0  0  0  0  0  0  0  0  0  0
   34.3890   35.0350  -17.9350 H   0  0  0  0  0  0  0  0  0  0  0  0
   35.1270   34.0530  -19.0110 H   0  0  0  0  0  0  0  0  0  0  0  0
   32.1840   33.6510  -23.2180 H   0  0  0  0  0  0  0  0  0  0  0  0
   31.2010   37.4360  -22.9370 H   0  0  0  0  0  0  0  0  0  0  0  0
   32.1970   38.6190  -21.5800 H   0  0  0  0  0  0  0  0  0  0  0  0
   33.4140   36.7480  -18.0600 H   0  0  0  0  0  0  0  0  0  0  0  0
   32.8370   33.9080  -20.6920 C   0  0  0  0  0  0  0  0  0  0  0  0
   31.6840   34.5270  -21.4910 C   0  0  1  0  0  0  0  0  0  0  0  0
   32.0650   35.8830  -22.0530 C   0  0  2  0  0  0  0  0  0  0  0  0
   32.7340   36.7660  -21.0050 C   0  0  1  0  0  0  0  0  0  0  0  0
   33.9670   36.0570  -20.4180 C   0  0  1  0  0  0  0  0  0  0  0  0
   33.9480   31.4530  -15.9630 C   0  0  0  0  0  0  0  0  0  0  0  0
   34.8150   36.9890  -19.5070 C   0  0  0  0  0  0  0  0  0  0  0  0
   34.3760   32.7850  -16.6150 C   0  0  0  0  0  0  0  0  0  0  0  0
   33.6210   33.1010  -17.9350 C   0  0  0  0  0  0  0  0  0  0  0  0
   34.2460   34.3220  -18.6210 C   0  0  0  0  0  0  0  0  0  0  0  0
   33.4000   34.8710  -19.7020 N   0  3  2  0  0  0  0  0  0  0  0  0
   31.3780   33.7170  -22.6300 O   0  0  0  0  0  0  0  0  0  0  0  0
   30.9290   36.5460  -22.5720 O   0  0  0  0  0  0  0  0  0  0  0  0
   32.9950   38.0230  -21.6690 O   0  0  0  0  0  0  0  0  0  0  0  0
   34.0810   37.4440  -18.3260 O   0  0  0  0  0  0  0  0  0  0  0  0
   32.5972   35.2327  -19.2281 H   0  0  0  0  0  0  0  0  0  0  0  0
  1 22  1  0  0  0  0
  2 22  1  0  0  0  0
  3 23  1  0  0  0  0
  4 24  1  0  0  0  0
  5 25  1  0  0  0  0
  6 26  1  0  0  0  0
  7 27  1  0  0  0  0
  8 27  1  0  0  0  0
  9 27  1  0  0  0  0
 10 28  1  0  0  0  0
 11 28  1  0  0  0  0
 12 29  1  0  0  0  0
 13 29  1  0  0  0  0
 14 30  1  0  0  0  0
 15 30  1  0  0  0  0
 16 31  1  0  0  0  0
 17 31  1  0  0  0  0
 18 33  1  0  0  0  0
 19 34  1  0  0  0  0
 20 35  1  0  0  0  0
 21 36  1  0  0  0  0
 22 23  1  0  0  0  0
 22 32  1  0  0  0  0
 23 24  1  6  0  0  0
 23 33  1  0  0  0  0
 24 25  1  1  0  0  0
 24 34  1  0  0  0  0
 25 26  1  1  0  0  0
 25 35  1  0  0  0  0
 26 28  1  0  0  0  0
 26 32  1  1  0  0  0
 27 29  1  0  0  0  0
 28 36  1  0  0  0  0
 29 30  1  0  0  0  0
 30 31  1  0  0  0  0
 31 32  1  0  0  0  0
 32 37  1  1  0  0  0
M  CHG  1  32   1
M  END
$$$$
